# Packages
 &PACKAGES
 useDIAGNOSTICS=.TRUE.,
 useVar_Bot_Drag=.TRUE.
 /
